/*--------------------------------*- C++ -*----------------------------------*\
| =========                 |                                                 |
| \\      /  F ield         | OpenFOAM: The Open Source CFD Toolbox           |
|  \\    /   O peration     | Version:  v2306                                 |
|   \\  /    A nd           | Website:  www.openfoam.com                      |
|    \\/     M anipulation  |                                                 |
\*---------------------------------------------------------------------------*/
FoamFile
{
    version     2.0;
    format      ascii;
    class       dictionary;
    object      setFieldsDict;
}
// * * * * * * * * * * * * * * * * * * * * * * * * * * * * * * * * * * * * * //

defaultFieldValues
(
    volScalarFieldValue alpha.water 0
    volScalarFieldValue porosity 1
);

regions
(
    boxToCell
    {
        box (0 0 0) (1.5 0.1 0.01);

        fieldValues
        (
            volScalarFieldValue alpha.water 1
        );
    }
    boxToCell
    {
        box (0.65 0 0) (0.85 0.1 0.01);

        fieldValues
        (
            volScalarFieldValue porosity $p
        );
    }
);


// ************************************************************************* //
